test/fixtures/powermodels/case5/sol_dc_pf.json
{
  "termination_status": "OPTIMAL",
  "objective": 0.0,
  "solution": {
    "baseMVA": 100.0,
    "gen": {
      "4": {
        "qg": null,
        "pg": -0.05192000000000219
      },
      "1": {
        "qg": null,
        "pg": 0.3999999999999995
      },
      "5": {
        "qg": null,
        "pg": 4.70694
      },
      "2": {
        "qg": null,
        "pg": 1.7000000000000006
      },
      "3": {
        "qg": null,
        "pg": 3.24498
      }
    },
    "multiinfrastructure": false,
    "multinetwork": false,
    "bus": {
      "4": {
        "va": -0.0,
        "vm": 1.0
      },
      "1": {
        "va": 0.058717701852550826,
        "vm": 1.0
      },
      "10": {
        "va": 0.07333955268068587,
        "vm": 1.0
      },
      "2": {
        "va": -0.01080621779312838,
        "vm": 1.0
      },
      "3": {
        "va": -0.004803154881147317,
        "vm": 1.0
      }
    },
    "per_unit": true
  }
}

